 xtb: 6.7.1 (edcfbbe)
          08152600343D

 11 12  0     0  0            999 V2000
    2.6588    1.0895   -0.2439 O   0  0  0  0  0  0  0  0  0  0  0  0
    1.9866    0.1120   -0.0287 N   0  0  0  0  0  0  0  0  0  0  0  0
    2.4137   -1.0074    0.2155 O   0  0  0  0  0  0  0  0  0  0  0  0
    0.5781    0.2224   -0.0499 C   0  0  0  0  0  0  0  0  0  0  0  0
   -0.1389    1.2957   -0.2832 N   0  0  0  0  0  0  0  0  0  0  0  0
   -1.4191    0.8997   -0.1939 C   0  0  0  0  0  0  0  0  0  0  0  0
   -1.4835   -0.4465    0.1008 C   0  0  0  0  0  0  0  0  0  0  0  0
   -0.2029   -0.8683    0.1904 N   0  0  0  0  0  0  0  0  0  0  0  0
   -2.2196    1.5946   -0.3443 H   0  0  0  0  0  0  0  0  0  0  0  0
   -2.3206   -1.0976    0.2450 H   0  0  0  0  0  0  0  0  0  0  0  0
    0.1473   -1.7940    0.3923 H   0  0  0  0  0  0  0  0  0  0  0  0
  1  2  4  0  0  0  0
  1  3  1  0  0  0  0
  2  3  4  0  0  0  0
  2  4  1  0  0  0  0
  4  5  4  0  0  0  0
  5  6  4  0  0  0  0
  6  7  4  0  0  0  0
  4  8  4  0  0  0  0
  7  8  4  0  0  0  0
  6  9  1  0  0  0  0
  7 10  1  0  0  0  0
  8 11  1  0  0  0  0
M  END
