 xtb: 6.7.1 (edcfbbe)
          08152600333D

 10 10  0     0  0            999 V2000
    2.5728    0.8204    0.6175 O   0  0  0  0  0  0  0  0  0  0  0  0
    1.9426   -0.0992    0.0830 N   0  0  0  0  0  0  0  0  0  0  0  0
    2.5192   -1.0803   -0.4001 O   0  0  0  0  0  0  0  0  0  0  0  0
    0.5710   -0.0292    0.0244 C   0  0  0  0  0  0  0  0  0  0  0  0
   -0.1266    1.0127    0.5314 N   0  0  0  0  0  0  0  0  0  0  0  0
   -1.3889    0.6893    0.2705 C   0  0  0  0  0  0  0  0  0  0  0  0
   -1.4237   -0.5457   -0.3907 C   0  0  0  0  0  0  0  0  0  0  0  0
   -0.1833   -0.9969   -0.5445 N   0  0  0  0  0  0  0  0  0  0  0  0
   -2.2073    1.3293    0.5546 H   0  0  0  0  0  0  0  0  0  0  0  0
   -2.2758   -1.1004   -0.7462 H   0  0  0  0  0  0  0  0  0  0  0  0
  1  2  4  0  0  0  0
  2  3  4  0  0  0  0
  2  4  1  0  0  0  0
  4  5  4  0  0  0  0
  5  6  4  0  0  0  0
  6  7  4  0  0  0  0
  4  8  4  0  0  0  0
  7  8  4  0  0  0  0
  6  9  1  0  0  0  0
  7 10  1  0  0  0  0
M  CHG  1   1  -1
M  END
