 xtb: 6.7.1 (edcfbbe)
          08152600323D

  9  9  0     0  0            999 V2000
    3.3425   -0.1215    0.0537 N   0  0  0  0  0  0  0  0  0  0  0  0
    2.1864   -0.0818    0.0364 C   0  0  0  0  0  0  0  0  0  0  0  0
    0.7970   -0.0292    0.0133 C   0  0  0  0  0  0  0  0  0  0  0  0
    0.0449   -0.0855    1.1383 N   0  0  0  0  0  0  0  0  0  0  0  0
   -1.2095   -0.0066    0.6724 C   0  0  0  0  0  0  0  0  0  0  0  0
   -1.1830    0.0946   -0.7116 C   0  0  0  0  0  0  0  0  0  0  0  0
    0.0884    0.0808   -1.1358 N   0  0  0  0  0  0  0  0  0  0  0  0
   -2.0597   -0.0257    1.3388 H   0  0  0  0  0  0  0  0  0  0  0  0
   -2.0072    0.1750   -1.4055 H   0  0  0  0  0  0  0  0  0  0  0  0
  1  2  3  0  0  0  0
  2  3  1  0  0  0  0
  3  4  4  0  0  0  0
  4  5  4  0  0  0  0
  5  6  4  0  0  0  0
  3  7  4  0  0  0  0
  6  7  4  0  0  0  0
  5  8  1  0  0  0  0
  6  9  1  0  0  0  0
M  CHG  1   1  -1
M  END
