 xtb: 6.7.1 (edcfbbe)
          08152600323D

 10 10  0     0  0            999 V2000
    3.3258    0.1938    0.0399 N   0  0  0  0  0  0  0  0  0  0  0  0
    2.1812    0.2374   -0.0133 C   0  0  0  0  0  0  0  0  0  0  0  0
    0.7780    0.2460   -0.0626 C   0  0  0  0  0  0  0  0  0  0  0  0
    0.0154    1.2469   -0.4466 N   0  0  0  0  0  0  0  0  0  0  0  0
   -1.2536    0.8121   -0.3324 C   0  0  0  0  0  0  0  0  0  0  0  0
   -1.2756   -0.4803    0.1303 C   0  0  0  0  0  0  0  0  0  0  0  0
    0.0234   -0.8359    0.3005 N   0  0  0  0  0  0  0  0  0  0  0  0
   -2.0755    1.4495   -0.5880 H   0  0  0  0  0  0  0  0  0  0  0  0
   -2.0869   -1.1457    0.3422 H   0  0  0  0  0  0  0  0  0  0  0  0
    0.3680   -1.7236    0.6301 H   0  0  0  0  0  0  0  0  0  0  0  0
  1  2  3  0  0  0  0
  2  3  1  0  0  0  0
  3  4  4  0  0  0  0
  4  5  4  0  0  0  0
  5  6  2  0  0  0  0
  3  7  1  0  0  0  0
  6  7  4  0  0  0  0
  5  8  1  0  0  0  0
  6  9  1  0  0  0  0
  7 10  1  0  0  0  0
M  END
