 xtb: 6.7.1 (edcfbbe)
          08152600333D

 11 11  0     0  0            999 V2000
    1.8581   -0.0279   -0.0371 C   0  0  0  0  0  0  0  0  0  0  0  0
    0.3597   -0.0027   -0.0132 C   0  0  0  0  0  0  0  0  0  0  0  0
   -0.3780   -1.0204   -0.4729 N   0  0  0  0  0  0  0  0  0  0  0  0
   -1.6529   -0.5987   -0.2551 C   0  0  0  0  0  0  0  0  0  0  0  0
   -1.6226    0.6474    0.3215 C   0  0  0  0  0  0  0  0  0  0  0  0
   -0.3281    1.0350    0.4782 N   0  0  0  0  0  0  0  0  0  0  0  0
    2.2595   -0.4678    0.8816 H   0  0  0  0  0  0  0  0  0  0  0  0
    2.2460    0.9871   -0.1247 H   0  0  0  0  0  0  0  0  0  0  0  0
    2.2073   -0.6253   -0.8795 H   0  0  0  0  0  0  0  0  0  0  0  0
   -2.5048   -1.2104   -0.5264 H   0  0  0  0  0  0  0  0  0  0  0  0
   -2.4442    1.2836    0.6276 H   0  0  0  0  0  0  0  0  0  0  0  0
  1  2  1  0  0  0  0
  2  3  4  0  0  0  0
  3  4  4  0  0  0  0
  4  5  2  0  0  0  0
  2  6  4  0  0  0  0
  5  6  4  0  0  0  0
  1  7  1  0  0  0  0
  1  8  1  0  0  0  0
  1  9  1  0  0  0  0
  4 10  1  0  0  0  0
  5 11  1  0  0  0  0
M  CHG  1   1  -1
M  END
