 xtb: 6.7.1 (edcfbbe)
          08152600333D

 12 12  0     0  0            999 V2000
    1.8797   -0.1475   -0.0631 C   0  0  0  0  0  0  0  0  0  0  0  0
    0.3957   -0.1883   -0.0672 C   0  0  0  0  0  0  0  0  0  0  0  0
   -0.3427   -1.2075   -0.4118 N   0  0  0  0  0  0  0  0  0  0  0  0
   -1.6355   -0.8093   -0.2666 C   0  0  0  0  0  0  0  0  0  0  0  0
   -1.6824    0.4786    0.1753 C   0  0  0  0  0  0  0  0  0  0  0  0
   -0.3761    0.8710    0.3012 N   0  0  0  0  0  0  0  0  0  0  0  0
    2.2566    0.0562    0.9390 H   0  0  0  0  0  0  0  0  0  0  0  0
    2.2454    0.6298   -0.7337 H   0  0  0  0  0  0  0  0  0  0  0  0
    2.2558   -1.1093   -0.3954 H   0  0  0  0  0  0  0  0  0  0  0  0
   -2.4425   -1.4773   -0.4903 H   0  0  0  0  0  0  0  0  0  0  0  0
   -2.5005    1.1299    0.4041 H   0  0  0  0  0  0  0  0  0  0  0  0
   -0.0536    1.7737    0.6086 H   0  0  0  0  0  0  0  0  0  0  0  0
  1  2  1  0  0  0  0
  2  3  2  0  0  0  0
  3  4  4  0  0  0  0
  4  5  2  0  0  0  0
  2  6  4  0  0  0  0
  5  6  1  0  0  0  0
  1  7  1  0  0  0  0
  1  8  1  0  0  0  0
  1  9  1  0  0  0  0
  4 10  1  0  0  0  0
  5 11  1  0  0  0  0
  6 12  1  0  0  0  0
M  END
